<?xml version="1.0" encoding="UTF-8"?>

<!-- generated on 2024-07-10 20:34:41.020991 by osmWebWizard.py UNKNOWN
<configuration>
    <net-file value="/home/alisa/Sumo/2024-07-10-20-33-57/osm.net.xml.gz"/>
    <output-trip-file value="/home/alisa/Sumo/2024-07-10-20-33-57/osm.bus.trips.xml"/>
    <route-file value="/home/alisa/Sumo/2024-07-10-20-33-57/osm.bus.rou.xml"/>
    <prefix value="bus"/>
    <trip-attributes value="departLane=&quot;best&quot;"/>
    <fringe-start-attributes value="departSpeed=&quot;max&quot;"/>
    <vehicle-class value="bus"/>
    <fringe-factor value="5"/>
    <vclass value="bus"/>
    <via-edge-types value="highway.motorway,highway.motorway_link,highway.trunk_link,highway.primary_link,highway.secondary_link,highway.tertiary_link"/>
    <min-distance value="600.0"/>
    <min-distance.fringe value="10.0"/>
    <remove-loops value="True"/>
    <validate value="True"/>
    <insertion-density value="10.0"/>
</configuration>
-->

<!-- generated on 2024-07-10 20:34:40 by Eclipse SUMO duarouter Version 1.20.0
<configuration xmlns:xsi="http://www.w3.org/2001/XMLSchema-instance" xsi:noNamespaceSchemaLocation="http://sumo.dlr.de/xsd/duarouterConfiguration.xsd">

    <input>
        <net-file value="/home/alisa/Sumo/2024-07-10-20-33-57/osm.net.xml.gz"/>
        <route-files value="/home/alisa/Sumo/2024-07-10-20-33-57/osm.bus.trips.xml"/>
    </input>

    <output>
        <output-file value="/home/alisa/Sumo/2024-07-10-20-33-57/osm.bus.trips.xml.tmp"/>
        <alternatives-output value="NUL"/>
        <write-trips value="true"/>
    </output>

    <processing>
        <remove-loops value="true"/>
    </processing>

    <time>
        <begin value="0.0"/>
        <end value="3600.0"/>
    </time>

    <report>
        <no-warnings value="true"/>
        <ignore-errors value="true"/>
        <no-step-log value="true"/>
    </report>

</configuration>
-->

<routes xmlns:xsi="http://www.w3.org/2001/XMLSchema-instance" xsi:noNamespaceSchemaLocation="http://sumo.dlr.de/xsd/routes_file.xsd">
    <vType id="bus_bus" vClass="bus"/>
    <trip id="bus0" type="bus_bus" depart="0.00" departLane="best" from="-261601146#2" to="-1162065320#0"/>
    <trip id="bus1" type="bus_bus" depart="1.67" departLane="best" departSpeed="max" from="-5075630#4" to="5038938"/>
    <trip id="bus2" type="bus_bus" depart="3.35" departLane="best" from="412138231" to="30148050#1"/>
    <trip id="bus3" type="bus_bus" depart="5.02" departLane="best" from="682113696" to="206293099#0"/>
    <trip id="bus4" type="bus_bus" depart="6.70" departLane="best" departSpeed="max" from="-413745908#12" to="-199959901"/>
    <trip id="bus5" type="bus_bus" depart="8.37" departLane="best" from="27581785" to="253521587"/>
    <trip id="bus6" type="bus_bus" depart="10.04" departLane="best" from="-414512201" to="28268620"/>
    <trip id="bus7" type="bus_bus" depart="11.72" departLane="best" from="5012115" to="-10422240"/>
    <trip id="bus8" type="bus_bus" depart="13.39" departLane="best" from="-4992149#2" to="443617342#0"/>
    <trip id="bus9" type="bus_bus" depart="15.07" departLane="best" departSpeed="max" from="-5718445#3" to="-377848436#3"/>
    <trip id="bus10" type="bus_bus" depart="16.74" departLane="best" departSpeed="max" from="899304419#0" to="9277534"/>
    <trip id="bus11" type="bus_bus" depart="18.42" departLane="best" from="-142386719" to="-237190956#1"/>
    <trip id="bus13" type="bus_bus" depart="21.76" departLane="best" from="-76456775#0" to="4964409"/>
    <trip id="bus14" type="bus_bus" depart="23.44" departLane="best" from="1291927075" to="9182668#3"/>
    <trip id="bus15" type="bus_bus" depart="25.11" departLane="best" departSpeed="max" from="-785109734" to="-25626576#1"/>
    <trip id="bus16" type="bus_bus" depart="26.79" departLane="best" from="-5116214#2" to="322713330#1"/>
    <trip id="bus17" type="bus_bus" depart="28.46" departLane="best" from="531703034" to="27653250"/>
    <trip id="bus18" type="bus_bus" depart="30.13" departLane="best" from="-360307983#1" to="-123620607#0"/>
    <trip id="bus19" type="bus_bus" depart="31.81" departLane="best" from="422258231#0" to="-75221791#2"/>
    <trip id="bus20" type="bus_bus" depart="33.48" departLane="best" from="-166272321" to="610577376"/>
    <trip id="bus21" type="bus_bus" depart="35.16" departLane="best" from="259024849#1" to="106286247"/>
    <trip id="bus22" type="bus_bus" depart="36.83" departLane="best" from="-75097124#7" to="32702144#1"/>
    <trip id="bus23" type="bus_bus" depart="38.51" departLane="best" departSpeed="max" from="-4992148#2" to="8109800#1"/>
    <trip id="bus24" type="bus_bus" depart="40.18" departLane="best" from="27327968#0" to="-30711135"/>
    <trip id="bus25" type="bus_bus" depart="41.85" departLane="best" from="30711135" to="4964402"/>
    <trip id="bus26" type="bus_bus" depart="43.53" departLane="best" departSpeed="max" from="-29036006#1" to="110367313#0"/>
    <trip id="bus27" type="bus_bus" depart="45.20" departLane="best" departSpeed="max" from="97833580#0" to="367221732"/>
    <trip id="bus28" type="bus_bus" depart="46.88" departLane="best" departSpeed="max" from="14184591" to="30711136#0"/>
    <trip id="bus29" type="bus_bus" depart="48.55" departLane="best" from="5156021#0" to="5136341#0"/>
    <trip id="bus30" type="bus_bus" depart="50.22" departLane="best" from="-5214473#7" to="-57382492"/>
    <trip id="bus31" type="bus_bus" depart="51.90" departLane="best" from="411596081" to="8110183#0"/>
    <trip id="bus32" type="bus_bus" depart="53.57" departLane="best" departSpeed="max" from="57382492" to="-8109767#1"/>
    <trip id="bus33" type="bus_bus" depart="55.25" departLane="best" departSpeed="max" from="28109456#0" to="-122591586#1"/>
    <trip id="bus34" type="bus_bus" depart="56.92" departLane="best" from="8028257#0" to="1291927074"/>
    <trip id="bus36" type="bus_bus" depart="60.27" departLane="best" from="657946881#0" to="5718313#0"/>
    <trip id="bus37" type="bus_bus" depart="61.94" departLane="best" departSpeed="max" from="200856434" to="8038767#2"/>
    <trip id="bus38" type="bus_bus" depart="63.62" departLane="best" departSpeed="max" from="-8086636#5" to="4969240"/>
    <trip id="bus39" type="bus_bus" depart="65.29" departLane="best" from="9930926#0" to="-1208470615"/>
    <trip id="bus40" type="bus_bus" depart="66.97" departLane="best" from="-14036945#4" to="33776922#0"/>
    <trip id="bus41" type="bus_bus" depart="68.64" departLane="best" from="200998989#4" to="33523612#0"/>
    <trip id="bus42" type="bus_bus" depart="70.31" departLane="best" departSpeed="max" from="4965632" to="12078454"/>
    <trip id="bus43" type="bus_bus" depart="71.99" departLane="best" from="-1217154805" to="110417545"/>
    <trip id="bus44" type="bus_bus" depart="73.66" departLane="best" from="993040723#0" to="23978805"/>
    <trip id="bus45" type="bus_bus" depart="75.34" departLane="best" from="-106284945#10" to="474433018#0"/>
    <trip id="bus46" type="bus_bus" depart="77.01" departLane="best" from="316459833" to="244043137#0"/>
    <trip id="bus47" type="bus_bus" depart="78.69" departLane="best" departSpeed="max" from="-4992148#2" to="367723394"/>
    <trip id="bus48" type="bus_bus" depart="80.36" departLane="best" from="206121410#0" to="-12153428"/>
    <trip id="bus49" type="bus_bus" depart="82.03" departLane="best" departSpeed="max" from="-983830318#2" to="8573804#0"/>
    <trip id="bus50" type="bus_bus" depart="83.71" departLane="best" departSpeed="max" from="57382492" to="5718386#0"/>
    <trip id="bus51" type="bus_bus" depart="85.38" departLane="best" from="1162065325" to="-413104170#2"/>
    <trip id="bus52" type="bus_bus" depart="87.06" departLane="best" from="-5155825#0" to="-36341376#3"/>
    <trip id="bus53" type="bus_bus" depart="88.73" departLane="best" from="478516448#0" to="23978809"/>
    <trip id="bus54" type="bus_bus" depart="90.40" departLane="best" from="-1007099280" to="-8659420"/>
    <trip id="bus55" type="bus_bus" depart="92.08" departLane="best" from="58878923#1" to="5718444#0"/>
    <trip id="bus57" type="bus_bus" depart="95.43" departLane="best" from="58117246#0" to="82965349#0"/>
    <trip id="bus58" type="bus_bus" depart="97.10" departLane="best" departSpeed="max" from="-13745758#2" to="1191168447"/>
    <trip id="bus59" type="bus_bus" depart="98.78" departLane="best" from="123240445" to="5075630#3"/>
    <trip id="bus60" type="bus_bus" depart="100.45" departLane="best" from="10588779" to="25600876#3"/>
    <trip id="bus61" type="bus_bus" depart="102.12" departLane="best" from="-4969226#3" to="-733739481#8"/>
    <trip id="bus62" type="bus_bus" depart="103.80" departLane="best" departSpeed="max" from="-8109955" to="-4965629#2"/>
    <trip id="bus64" type="bus_bus" depart="107.15" departLane="best" departSpeed="max" from="-391740779" to="8101422#0"/>
    <trip id="bus65" type="bus_bus" depart="108.82" departLane="best" from="985068067#4" to="-37138338"/>
    <trip id="bus66" type="bus_bus" depart="110.49" departLane="best" departSpeed="max" from="-90478345#2" to="222568382#0"/>
    <trip id="bus67" type="bus_bus" depart="112.17" departLane="best" from="-23978809" to="-5075630#1"/>
    <trip id="bus68" type="bus_bus" depart="113.84" departLane="best" departSpeed="max" from="-5718444#2" to="28216815"/>
    <trip id="bus69" type="bus_bus" depart="115.52" departLane="best" from="-123309218" to="206293853#0"/>
    <trip id="bus71" type="bus_bus" depart="118.87" departLane="best" from="-531703033#4" to="-142386236"/>
    <trip id="bus72" type="bus_bus" depart="120.54" departLane="best" departSpeed="max" from="-4444678#3" to="-411596077#3"/>
    <trip id="bus73" type="bus_bus" depart="122.21" departLane="best" from="412142122#2" to="-30711135"/>
    <trip id="bus74" type="bus_bus" depart="123.89" departLane="best" departSpeed="max" from="10422240" to="5155825#0"/>
    <trip id="bus75" type="bus_bus" depart="125.56" departLane="best" from="5011978" to="-430976266#1"/>
    <trip id="bus76" type="bus_bus" depart="127.24" departLane="best" departSpeed="max" from="-157222488#2" to="12078460"/>
    <trip id="bus78" type="bus_bus" depart="130.58" departLane="best" from="411579684#1" to="-412142122#1"/>
    <trip id="bus79" type="bus_bus" depart="132.26" departLane="best" from="-227628539" to="-23952533#1"/>
    <trip id="bus80" type="bus_bus" depart="133.93" departLane="best" from="-8101247#1" to="473854203"/>
    <trip id="bus81" type="bus_bus" depart="135.61" departLane="best" departSpeed="max" from="-370109217#1" to="123309218"/>
    <trip id="bus82" type="bus_bus" depart="137.28" departLane="best" from="-8109953#1" to="61489778#0"/>
    <trip id="bus83" type="bus_bus" depart="138.96" departLane="best" from="-466369849" to="8103322"/>
    <trip id="bus84" type="bus_bus" depart="140.63" departLane="best" from="-9182668#0" to="-633892178#2"/>
    <trip id="bus85" type="bus_bus" depart="142.30" departLane="best" from="13858650#3" to="-1291927076"/>
    <trip id="bus86" type="bus_bus" depart="143.98" departLane="best" from="-996338801#2" to="-5718739#6"/>
    <trip id="bus87" type="bus_bus" depart="145.65" departLane="best" from="911471267" to="8103328#0"/>
    <trip id="bus88" type="bus_bus" depart="147.33" departLane="best" from="5209450#0" to="-411094915"/>
    <trip id="bus89" type="bus_bus" depart="149.00" departLane="best" from="1088516454" to="-4965632"/>
    <trip id="bus90" type="bus_bus" depart="150.67" departLane="best" from="8087206#0" to="130992597"/>
    <trip id="bus91" type="bus_bus" depart="152.35" departLane="best" departSpeed="max" from="-785109734" to="-954383097"/>
    <trip id="bus92" type="bus_bus" depart="154.02" departLane="best" from="-4969226#3" to="-5155813#8"/>
    <trip id="bus93" type="bus_bus" depart="155.70" departLane="best" departSpeed="max" from="983830318#0" to="12078454"/>
    <trip id="bus94" type="bus_bus" depart="157.37" departLane="best" departSpeed="max" from="899304419#0" to="-9097238"/>
    <trip id="bus95" type="bus_bus" depart="159.04" departLane="best" from="141064014#1" to="123313358#3"/>
    <trip id="bus96" type="bus_bus" depart="160.72" departLane="best" departSpeed="max" from="-28126135" to="78500971"/>
    <trip id="bus97" type="bus_bus" depart="162.39" departLane="best" from="911471267" to="27865722#0"/>
    <trip id="bus98" type="bus_bus" depart="164.07" departLane="best" from="131519476#1" to="5012113#0"/>
    <trip id="bus99" type="bus_bus" depart="165.74" departLane="best" from="1208289392" to="28109455"/>
    <trip id="bus100" type="bus_bus" depart="167.42" departLane="best" from="1178357054#1" to="610577374#0"/>
    <trip id="bus101" type="bus_bus" depart="169.09" departLane="best" departSpeed="max" from="-28268620" to="90478345#0"/>
    <trip id="bus102" type="bus_bus" depart="170.76" departLane="best" from="-130992597" to="420803105"/>
    <trip id="bus103" type="bus_bus" depart="172.44" departLane="best" departSpeed="max" from="207169038" to="-422962208#1"/>
    <trip id="bus104" type="bus_bus" depart="174.11" departLane="best" from="4444390#0" to="-28109456#0"/>
    <trip id="bus106" type="bus_bus" depart="177.46" departLane="best" departSpeed="max" from="207169038" to="32349180"/>
    <trip id="bus107" type="bus_bus" depart="179.13" departLane="best" departSpeed="max" from="-8109771" to="28109331"/>
    <trip id="bus108" type="bus_bus" depart="180.81" departLane="best" from="122718428" to="8109771"/>
    <trip id="bus109" type="bus_bus" depart="182.48" departLane="best" from="411043308" to="45846807#0"/>
    <trip id="bus110" type="bus_bus" depart="184.16" departLane="best" from="-30625919" to="-8028257#1"/>
    <trip id="bus111" type="bus_bus" depart="185.83" departLane="best" from="5214481#0" to="5028399"/>
    <trip id="bus112" type="bus_bus" depart="187.51" departLane="best" from="-1245785601" to="1290341419"/>
    <trip id="bus113" type="bus_bus" depart="189.18" departLane="best" from="995917616#0" to="9930928"/>
    <trip id="bus115" type="bus_bus" depart="192.53" departLane="best" from="-4969226#3" to="8109770"/>
    <trip id="bus116" type="bus_bus" depart="194.20" departLane="best" from="5924059#1" to="76456775#2"/>
    <trip id="bus117" type="bus_bus" depart="195.88" departLane="best" from="-75095612#2" to="379028417#0"/>
    <trip id="bus118" type="bus_bus" depart="197.55" departLane="best" from="-5130513#2" to="4444682#1"/>
    <trip id="bus119" type="bus_bus" depart="199.22" departLane="best" from="23978807" to="972976967"/>
    <trip id="bus120" type="bus_bus" depart="200.90" departLane="best" from="28013623" to="1053082139"/>
    <trip id="bus121" type="bus_bus" depart="202.57" departLane="best" from="5038944#0" to="-8028255"/>
    <trip id="bus122" type="bus_bus" depart="204.25" departLane="best" from="-2896894#2" to="8109955"/>
    <trip id="bus123" type="bus_bus" depart="205.92" departLane="best" departSpeed="max" from="-25395622" to="-26180560"/>
    <trip id="bus124" type="bus_bus" depart="207.60" departLane="best" departSpeed="max" from="-200855753" to="25689909"/>
    <trip id="bus125" type="bus_bus" depart="209.27" departLane="best" from="-5038944#3" to="30625915"/>
    <trip id="bus126" type="bus_bus" depart="210.94" departLane="best" from="-379028417#2" to="466369849"/>
    <trip id="bus127" type="bus_bus" depart="212.62" departLane="best" from="259023092#0" to="5718386#5"/>
    <trip id="bus130" type="bus_bus" depart="217.64" departLane="best" departSpeed="max" from="-8109955" to="-60957570#1"/>
    <trip id="bus131" type="bus_bus" depart="219.31" departLane="best" from="-1017185237#2" to="5116273#1"/>
    <trip id="bus132" type="bus_bus" depart="220.99" departLane="best" from="259882553" to="-56188477"/>
    <trip id="bus133" type="bus_bus" depart="222.66" departLane="best" from="414498696#0" to="25610550#0"/>
    <trip id="bus134" type="bus_bus" depart="224.34" departLane="best" from="-819426923" to="-106284945#9"/>
    <trip id="bus135" type="bus_bus" depart="226.01" departLane="best" from="1268386974#0" to="785109734"/>
    <trip id="bus136" type="bus_bus" depart="227.69" departLane="best" departSpeed="max" from="76168374" to="25395622"/>
    <trip id="bus137" type="bus_bus" depart="229.36" departLane="best" from="5136343#0" to="28109331"/>
    <trip id="bus139" type="bus_bus" depart="232.71" departLane="best" departSpeed="max" from="4965639" to="63329964"/>
    <trip id="bus140" type="bus_bus" depart="234.38" departLane="best" departSpeed="max" from="733877656" to="4964400"/>
    <trip id="bus141" type="bus_bus" depart="236.06" departLane="best" departSpeed="max" from="-45846807#2" to="-241074268#0"/>
    <trip id="bus142" type="bus_bus" depart="237.73" departLane="best" from="-4928836#1" to="785109734"/>
    <trip id="bus143" type="bus_bus" depart="239.40" departLane="best" departSpeed="max" from="-8101422#2" to="32680214"/>
    <trip id="bus144" type="bus_bus" depart="241.08" departLane="best" departSpeed="max" from="-28126135" to="8109768#0"/>
    <trip id="bus145" type="bus_bus" depart="242.75" departLane="best" from="53208907" to="9277502#0"/>
    <trip id="bus146" type="bus_bus" depart="244.43" departLane="best" from="1130923672#0" to="4965638"/>
    <trip id="bus147" type="bus_bus" depart="246.10" departLane="best" from="1100597236" to="8109768#2"/>
    <trip id="bus148" type="bus_bus" depart="247.78" departLane="best" from="4969228" to="66199718#0"/>
    <trip id="bus149" type="bus_bus" depart="249.45" departLane="best" from="5028391#0" to="-5718742"/>
    <trip id="bus150" type="bus_bus" depart="251.12" departLane="best" departSpeed="max" from="4965621" to="253521586#0"/>
    <trip id="bus151" type="bus_bus" depart="252.80" departLane="best" departSpeed="max" from="5718561" to="61489779"/>
    <trip id="bus152" type="bus_bus" depart="254.47" departLane="best" from="415342162" to="531703033#2"/>
    <trip id="bus153" type="bus_bus" depart="256.15" departLane="best" from="-996338800" to="-8066861"/>
    <trip id="bus154" type="bus_bus" depart="257.82" departLane="best" from="1114906169" to="-4444390#3"/>
    <trip id="bus155" type="bus_bus" depart="259.49" departLane="best" from="5337909#3" to="66199718#0"/>
    <trip id="bus156" type="bus_bus" depart="261.17" departLane="best" from="911232540" to="-630756704#3"/>
    <trip id="bus157" type="bus_bus" depart="262.84" departLane="best" from="261740058#0" to="1192366819#0"/>
    <trip id="bus158" type="bus_bus" depart="264.52" departLane="best" from="940680683" to="244043137#0"/>
    <trip id="bus159" type="bus_bus" depart="266.19" departLane="best" from="-8109768#0" to="-26180560"/>
    <trip id="bus160" type="bus_bus" depart="267.87" departLane="best" from="-9182668#3" to="8027254#3"/>
    <trip id="bus161" type="bus_bus" depart="269.54" departLane="best" departSpeed="max" from="-200855753" to="1209848130#0"/>
    <trip id="bus162" type="bus_bus" depart="271.21" departLane="best" from="411579683#0" to="8109765#0"/>
    <trip id="bus163" type="bus_bus" depart="272.89" departLane="best" from="23943417" to="-206124247#4"/>
    <trip id="bus164" type="bus_bus" depart="274.56" departLane="best" from="8038762" to="27653247#0"/>
    <trip id="bus165" type="bus_bus" depart="276.24" departLane="best" from="1199234582" to="4444705#0"/>
    <trip id="bus166" type="bus_bus" depart="277.91" departLane="best" from="-1012604824#1" to="8103325#0"/>
    <trip id="bus167" type="bus_bus" depart="279.58" departLane="best" from="414512199#0" to="-411760472#6"/>
    <trip id="bus168" type="bus_bus" depart="281.26" departLane="best" from="-699087325" to="-141064014#0"/>
    <trip id="bus169" type="bus_bus" depart="282.93" departLane="best" departSpeed="max" from="-5209474#2" to="-5924250"/>
    <trip id="bus170" type="bus_bus" depart="284.61" departLane="best" from="-38585442#2" to="-8038762"/>
    <trip id="bus171" type="bus_bus" depart="286.28" departLane="best" departSpeed="max" from="-5209453#10" to="1199237029"/>
    <trip id="bus172" type="bus_bus" depart="287.95" departLane="best" from="-8101247#0" to="-781564512#0"/>
    <trip id="bus173" type="bus_bus" depart="289.63" departLane="best" departSpeed="max" from="-244043137#1" to="12078450"/>
    <trip id="bus174" type="bus_bus" depart="291.30" departLane="best" departSpeed="max" from="8109800#0" to="414498694#0"/>
    <trip id="bus175" type="bus_bus" depart="292.98" departLane="best" from="-5156027#6" to="255680286#0"/>
    <trip id="bus176" type="bus_bus" depart="294.65" departLane="best" from="-1006307950" to="75095612#0"/>
    <trip id="bus177" type="bus_bus" depart="296.33" departLane="best" departSpeed="max" from="-8510516#1" to="27949918"/>
    <trip id="bus178" type="bus_bus" depart="298.00" departLane="best" from="28109455" to="135154006"/>
    <trip id="bus179" type="bus_bus" depart="299.67" departLane="best" from="9097238" to="-4965632"/>
    <trip id="bus180" type="bus_bus" depart="301.35" departLane="best" from="10422242" to="8046215"/>
    <trip id="bus181" type="bus_bus" depart="303.02" departLane="best" departSpeed="max" from="4965639" to="411579684#1"/>
    <trip id="bus182" type="bus_bus" depart="304.70" departLane="best" departSpeed="max" from="-13745758#2" to="206451118#0"/>
    <trip id="bus183" type="bus_bus" depart="306.37" departLane="best" from="25689908" to="-918676653#0"/>
    <trip id="bus184" type="bus_bus" depart="308.04" departLane="best" from="378655061#0" to="-5028396#1"/>
    <trip id="bus185" type="bus_bus" depart="309.72" departLane="best" from="-30641668#4" to="-5075630#1"/>
    <trip id="bus186" type="bus_bus" depart="311.39" departLane="best" from="-38585440" to="11569842"/>
    <trip id="bus187" type="bus_bus" depart="313.07" departLane="best" departSpeed="max" from="5209451" to="-147260598#8"/>
    <trip id="bus188" type="bus_bus" depart="314.74" departLane="best" departSpeed="max" from="-8109768#2" to="34053934"/>
    <trip id="bus189" type="bus_bus" depart="316.42" departLane="best" from="-378655060" to="442426224#0"/>
    <trip id="bus190" type="bus_bus" depart="318.09" departLane="best" from="114791187" to="-5156027#6"/>
    <trip id="bus191" type="bus_bus" depart="319.76" departLane="best" departSpeed="max" from="28109456#0" to="-10422240"/>
    <trip id="bus192" type="bus_bus" depart="321.44" departLane="best" from="422366394#0" to="5116273#1"/>
    <trip id="bus193" type="bus_bus" depart="323.11" departLane="best" from="-19752354#7" to="12078456"/>
    <trip id="bus194" type="bus_bus" depart="324.79" departLane="best" departSpeed="max" from="-322713330#6" to="8659425#0"/>
    <trip id="bus195" type="bus_bus" depart="326.46" departLane="best" from="12153430#0" to="-1290341414"/>
    <trip id="bus196" type="bus_bus" depart="328.13" departLane="best" departSpeed="max" from="-45846807#2" to="608100547"/>
    <trip id="bus197" type="bus_bus" depart="329.81" departLane="best" from="985068067#1" to="5209474#0"/>
    <trip id="bus198" type="bus_bus" depart="331.48" departLane="best" from="29246665#0" to="976145666"/>
    <trip id="bus199" type="bus_bus" depart="333.16" departLane="best" departSpeed="max" from="207169038" to="8510516#0"/>
    <trip id="bus200" type="bus_bus" depart="334.83" departLane="best" from="679273382" to="31542682"/>
    <trip id="bus201" type="bus_bus" depart="336.51" departLane="best" from="38585441#0" to="19752354#5"/>
    <trip id="bus202" type="bus_bus" depart="338.18" departLane="best" from="-5116273#0" to="255680286#0"/>
    <trip id="bus203" type="bus_bus" depart="339.85" departLane="best" from="733739481#0" to="-38585439#1"/>
    <trip id="bus204" type="bus_bus" depart="341.53" departLane="best" from="-1053082139" to="-5337909#0"/>
    <trip id="bus205" type="bus_bus" depart="343.20" departLane="best" departSpeed="max" from="4444684" to="222714920#0"/>
    <trip id="bus206" type="bus_bus" depart="344.88" departLane="best" from="-1290341413" to="-729408527"/>
    <trip id="bus207" type="bus_bus" depart="346.55" departLane="best" from="-5038938" to="-8109958#1"/>
    <trip id="bus209" type="bus_bus" depart="349.90" departLane="best" from="432358830" to="43204025"/>
    <trip id="bus210" type="bus_bus" depart="351.57" departLane="best" from="364641844#1" to="-13858650#2"/>
    <trip id="bus211" type="bus_bus" depart="353.25" departLane="best" departSpeed="max" from="-8103323#2" to="253014704"/>
    <trip id="bus212" type="bus_bus" depart="354.92" departLane="best" departSpeed="max" from="-8109770" to="30732136#0"/>
    <trip id="bus213" type="bus_bus" depart="356.60" departLane="best" departSpeed="max" from="-8109800#2" to="-8069838"/>
    <trip id="bus214" type="bus_bus" depart="358.27" departLane="best" departSpeed="max" from="200856434" to="-436666240#1"/>
    <trip id="bus215" type="bus_bus" depart="359.94" departLane="best" from="5215880" to="5097790#1"/>
    <trip id="bus216" type="bus_bus" depart="361.62" departLane="best" from="-795532703#2" to="-10422240"/>
    <trip id="bus217" type="bus_bus" depart="363.29" departLane="best" from="5214473#0" to="8515992#0"/>
    <trip id="bus218" type="bus_bus" depart="364.97" departLane="best" departSpeed="max" from="-8109771" to="5012111"/>
    <trip id="bus219" type="bus_bus" depart="366.64" departLane="best" from="8070035" to="4969240"/>
    <trip id="bus220" type="bus_bus" depart="368.31" departLane="best" from="-8816098#2" to="-1193766737"/>
    <trip id="bus221" type="bus_bus" depart="369.99" departLane="best" departSpeed="max" from="-5718386#7" to="414512668#0"/>
    <trip id="bus222" type="bus_bus" depart="371.66" departLane="best" departSpeed="max" from="-8101248#3" to="411043309#0"/>
    <trip id="bus223" type="bus_bus" depart="373.34" departLane="best" departSpeed="max" from="24940556" to="330026285"/>
    <trip id="bus224" type="bus_bus" depart="375.01" departLane="best" from="-8075220#0" to="24655690#0"/>
    <trip id="bus225" type="bus_bus" depart="376.69" departLane="best" from="122591582" to="367723404"/>
    <trip id="bus227" type="bus_bus" depart="380.03" departLane="best" departSpeed="max" from="-12078457#1" to="110367313#0"/>
    <trip id="bus228" type="bus_bus" depart="381.71" departLane="best" from="411760472#2" to="-8659423#5"/>
    <trip id="bus229" type="bus_bus" depart="383.38" departLane="best" from="4444385" to="110367313#0"/>
    <trip id="bus230" type="bus_bus" depart="385.06" departLane="best" from="42676070" to="5718444#0"/>
    <trip id="bus231" type="bus_bus" depart="386.73" departLane="best" from="478472523" to="-199959901"/>
    <trip id="bus232" type="bus_bus" depart="388.40" departLane="best" from="996338801#3" to="1011064332"/>
    <trip id="bus233" type="bus_bus" depart="390.08" departLane="best" from="-27653246#0" to="5148757#3"/>
    <trip id="bus234" type="bus_bus" depart="391.75" departLane="best" departSpeed="max" from="-110367313#6" to="5116215"/>
    <trip id="bus235" type="bus_bus" depart="393.43" departLane="best" departSpeed="max" from="-244043137#1" to="-411596081"/>
    <trip id="bus236" type="bus_bus" depart="395.10" departLane="best" departSpeed="max" from="150464332" to="-4965738#1"/>
    <trip id="bus237" type="bus_bus" depart="396.78" departLane="best" from="35577844" to="5116152"/>
    <trip id="bus238" type="bus_bus" depart="398.45" departLane="best" from="-30625915" to="30641882"/>
    <trip id="bus239" type="bus_bus" depart="400.12" departLane="best" from="420803105" to="-26176255#2"/>
    <trip id="bus240" type="bus_bus" depart="401.80" departLane="best" from="-5075630#2" to="9097236#0"/>
    <trip id="bus241" type="bus_bus" depart="403.47" departLane="best" departSpeed="max" from="-200855753" to="261740058#1"/>
    <trip id="bus242" type="bus_bus" depart="405.15" departLane="best" from="-5209471#2" to="414498694#0"/>
    <trip id="bus243" type="bus_bus" depart="406.82" departLane="best" departSpeed="max" from="899304419#0" to="1174688617"/>
    <trip id="bus244" type="bus_bus" depart="408.49" departLane="best" from="377848435#0" to="-163919423#1"/>
    <trip id="bus245" type="bus_bus" depart="410.17" departLane="best" from="32971314#0" to="330376871"/>
    <trip id="bus246" type="bus_bus" depart="411.84" departLane="best" from="-173530593#3" to="5116290"/>
    <trip id="bus247" type="bus_bus" depart="413.52" departLane="best" departSpeed="max" from="5209451" to="29246663#1"/>
    <trip id="bus248" type="bus_bus" depart="415.19" departLane="best" from="-23978809" to="945632572#2"/>
    <trip id="bus249" type="bus_bus" depart="416.87" departLane="best" departSpeed="max" from="4964395#0" to="-995621020"/>
    <trip id="bus250" type="bus_bus" depart="418.54" departLane="best" from="-819426924" to="1082287674"/>
    <trip id="bus251" type="bus_bus" depart="420.21" departLane="best" from="1194742739#2" to="-954383097"/>
    <trip id="bus252" type="bus_bus" depart="421.89" departLane="best" departSpeed="max" from="5209451" to="533584676"/>
    <trip id="bus253" type="bus_bus" depart="423.56" departLane="best" from="-189646724#3" to="90478345#0"/>
    <trip id="bus254" type="bus_bus" depart="425.24" departLane="best" from="31542679#0" to="12153431"/>
    <trip id="bus255" type="bus_bus" depart="426.91" departLane="best" from="411760472#1" to="9097237#0"/>
    <trip id="bus256" type="bus_bus" depart="428.58" departLane="best" from="5028396#0" to="5215882#0"/>
    <trip id="bus257" type="bus_bus" depart="430.26" departLane="best" from="129375449" to="148699157#1"/>
    <trip id="bus258" type="bus_bus" depart="431.93" departLane="best" from="-8816098#2" to="4965622"/>
    <trip id="bus259" type="bus_bus" depart="433.61" departLane="best" departSpeed="max" from="46154135#0" to="609816175"/>
    <trip id="bus260" type="bus_bus" depart="435.28" departLane="best" from="-5116274" to="206126289#0"/>
    <trip id="bus261" type="bus_bus" depart="436.95" departLane="best" from="5924063#0" to="-5156027#6"/>
    <trip id="bus262" type="bus_bus" depart="438.63" departLane="best" from="-1012604824#1" to="30732136#0"/>