<?xml version="1.0" encoding="UTF-8"?>

<!-- generated on 2024-07-10 20:34:35.557596 by osmWebWizard.py UNKNOWN
<configuration>
    <net-file value="/home/alisa/Sumo/2024-07-10-20-33-57/osm.net.xml.gz"/>
    <ptlines-file value="/home/alisa/Sumo/2024-07-10-20-33-57/osm_ptlines.xml"/>
    <ptstops-file value="/home/alisa/Sumo/2024-07-10-20-33-57/osm_stops.add.xml"/>
    <output-file value="/home/alisa/Sumo/2024-07-10-20-33-57/osm_pt.rou.xml"/>
    <stopinfos-file value="/home/alisa/Sumo/2024-07-10-20-33-57/stopinfos.xml"/>
    <routes-file value="/home/alisa/Sumo/2024-07-10-20-33-57/vehroutes.xml"/>
    <trips-file value="/home/alisa/Sumo/2024-07-10-20-33-57/trips.trips.xml"/>
    <min-stops value="0"/>
    <extend-to-fringe value="True"/>
    <random-begin value="True"/>
    <seed value="42"/>
    <ignore-errors value="True"/>
    <vtype-prefix value="pt_"/>
    <verbose value="True"/>
</configuration>
-->

<routes xmlns:xsi="http://www.w3.org/2001/XMLSchema-instance" xsi:noNamespaceSchemaLocation="http://sumo.dlr.de/xsd/routes_file.xsd">
    <vType id="pt_bus" vClass="bus"/>
    <vType id="pt_tram" vClass="tram"/>
    <vType id="pt_train" vClass="rail"/>
    <vType id="pt_subway" vClass="subway"/>
    <vType id="pt_light_rail" vClass="rail_urban"/>
    <vType id="pt_monorail" vClass="rail_urban"/>
    <vType id="pt_trolleybus" vClass="bus"/>
    <vType id="pt_minibus" vClass="bus"/>
    <vType id="pt_share_taxi" vClass="taxi"/>
    <vType id="pt_aerialway" vClass="cable_car" length="2.5" width="2" personCapacity="4"/>
    <vType id="pt_ferry" vClass="ship"/>
    <route id="pt_bus_X_3:0" edges="460211531" >
        <stop busStop="271458043" duration="20" until="34.0"/> <!-- Aachen Hauptbahnhof -->
    </route>
    <route id="pt_bus_1:2" edges="27653250 27653247#0 481799129 478472521#0 378655060 478472523 478472522 378655061#0 25607735#0 426790052 478516443 378655055#0 378655056#0 379028417#0 30732136#0 610577376 65411736 379075436#0" >
        <stop busStop="302865354" duration="20" until="49.0"/> <!-- Aachen Bushof -->
    </route>
    <route id="pt_bus_46:0" edges="43204026 5012113#0 27653247#0 481799129 478472521#0 378655060 478472523 478472522 378655061#0 25607735#0 426790052 478516443 378655055#0 378655056#0 379028417#0 30732136#0 610577376 65411736 379075436#0" >
        <stop busStop="3470766585" duration="20" until="46.0"/> <!-- Aachen Bushof -->
    </route>
    <route id="pt_bus_52:0" edges="27653250 27653247#0 481799129 478472521#0 378655060 478472523 478472522 378655061#0 25607735#0 426790052 478516443 378655055#0 378655056#0 379028417#0 30732136#0 610577376 65411736 379075436#0" >
        <stop busStop="302865354" duration="20" until="82.0"/> <!-- Aachen Bushof -->
    </route>
    <route id="pt_bus_X_25:1" edges="699087327 8070035 414512199#0 13866707#0 27653250 27653247#0 481799129 478472521#0 378655060 478472523 478472522 378655061#0 65157090#0 206451117 377848435#0 31542679#0 31542679#1 1153024461#0 369084443#0 370439010 370439009#0 370439013#0 262279473#0 370439008 370109217#0" >
        <stop busStop="155204468" duration="20" until="38.0"/> <!-- Aachen Bushof -->
    </route>
    <route id="pt_bus_21:1" edges="-379075436#1 -413741175 -610577376 -478516445 -379028417#2 -378655059 -378655055#2 -478516443 -488338802 -25607735#2 -378655061#3 -478472522 -478472523 -378655060 -478472521#1 -481799129 -1220113515 -318312583#1" >
        <stop busStop="-819017929" duration="20" until="62.0"/> <!-- Blücherplatz -->
        <stop busStop="-3247096695" duration="20" until="204.0"/> <!-- Hansemannplatz -->
    </route>
    <route id="pt_bus_X_35:0" edges="952341787#0 5047995#0 1268386974#0 206293852#0 206293852#2 13866707#0 27653250 27653247#0 481799129 478472521#0 378655060 478472523 478472522 378655061#0 65157090#0 206451117 377848435#0 31542679#0 31542679#1 1153024461#0 369084443#0 370439010 370439009#0 370439013#0 262279473#0 370439008 370109217#0" >
        <stop busStop="412441101" duration="20" until="54.0"/> <!-- Elisenbrunnen -->
    </route>
    <route id="pt_bus_X_25:0" edges="-370109217#1 -370439008 370582479#0 262279462 262279464 -370439010 -369084443#3 -377848436#3 -378035666 -228515747 -222460917 -32706415 976145666 5029379#0 60957570#0 378655060 -378655060 -478472521#1 -481799129 -1220113515 -318312583#1 5012115 30711135 414512202 -414512201" >
        <stop busStop="-3799313090" duration="20" until="95.0"/> <!-- Kaiserplatz -->
    </route>
    <route id="pt_bus_21:0" edges="411596082 422258233#1 38585437 411596081 9097238 411596077#1 422258231#0 122591587 1162065320#1 1162065325 15229027#0 10300180#0 15228622#0 -237190957#4 -237190956#1 -32952316 -319569817#3 -262279474#2 -26180560 368611216#0 368611216#1 206451118#0 31542682 370443423 370443420 5012278 426790052 478516443 378655055#0 378655056#0 379028417#0 30732136#0 610577376 65411736 379075436#0" >
        <stop busStop="3460302853" duration="20" until="47.0"/> <!-- Gillesbachtal -->
    </route>
    <route id="pt_bus_16:0" edges="43204026 5012113#0 27653247#0 481799129 478472521#0 378655060 478472523 478472522 378655061#0 25607735#0 426790052 478516443 378655055#0 378655056#0 379028417#0 30732136#0 610577376 65411736 379075436#0" >
        <stop busStop="3470766585" duration="20" until="46.0"/> <!-- Aachen Bushof -->
    </route>
    <route id="pt_bus_30:0" edges="1291927074 -1290341413 1291927080 1291927079 1291927082 1290341418 235546057 1291927071#0 235546058 1217137398 895988813 248571490 260837552 34053934 8082130#0 -911471267 241074264" >
        <stop busStop="11963492727" duration="20" until="72.0"/> <!-- Uniklinik -->
    </route>
    <route id="pt_bus_21:2" edges="411596082 422258233#1 38585437 411596081 9097238 411596077#1 422258231#0 122591587 1162065320#1 1162065325 15229027#0 10300180#0 15228622#0 -237190957#4 -237190956#1 -32952316 -319569817#3 -262279474#2 -26180560 368611216#0 368611216#1 206451118#0 31542682 370443423 370443420 5012278 426790052 478516443 378655055#0 378655056#0 379028417#0 30732136#0 610577376 65411736 379075436#0" >
        <stop busStop="3460302853" duration="20" until="80.0"/> <!-- Gillesbachtal -->
    </route>
    <route id="pt_bus_21:4" edges="-411582351 -142419917#1 142419917#0 411582351 546342017 1191168447 5028391#0 15228622#0 -237190957#4 -237190956#1 -32952316 -319569817#3 -262279474#2 -26180560 368611216#0 368611216#1 206451118#0 31542682 370443423 370443420 5012278 426790052 478516443 378655055#0 378655056#0 379028417#0 30732136#0 610577376 65411736 379075436#0" >
        <stop busStop="-301623196" duration="20" until="35.0"/> <!-- Normaluhr -->
    </route>
    <route id="pt_bus_46:1" edges="-379075436#1 -413741175 -610577376 -478516445 -379028417#2 -378655059 -378655055#2 -478516443 -488338802 -25607735#2 -378655061#3 -478472522 -478472523 -378655060 -478472521#1 -481799129 -1220113515 -318312583#1 5012115 30711138 43204026" >
        <stop busStop="-819017929" duration="20" until="95.0"/> <!-- Blücherplatz -->
        <stop busStop="-3247096695" duration="20" until="252.0"/> <!-- Hansemannplatz -->
    </route>
    <route id="pt_bus_51:0" edges="27653250 27653247#0 481799129 478472521#0 378655060 478472523 478472522 378655061#0 4444385 657946880 28928488#0 30681331#0 976283243 24655690#0 29246662 429047402 429047401#1 261740053#0 32732940#0 -32732940#3" >
        <stop busStop="302865354" duration="20" until="55.0"/> <!-- Aachen Bushof -->
    </route>
    <route id="pt_bus_66:0" edges="43204029 5012113#0 27653247#0 481799129 478472521#0 378655060 478472523 478472522 378655061#0 65157090#0 206451117 377848435#0 31542679#0 31542679#1 1153024461#0 369084443#0 370439010 370439009#0 370439013#0 262279473#0 370439008 370109217#0" >
        <stop busStop="302854413" duration="20" until="51.0"/> <!-- Aachen Bushof -->
    </route>
    <route id="pt_bus_328:1" edges="29246665#0 429065945 429044449#0 429044448#0 29246663#0 29246663#1 1174688617 261740052#0 4444387#0 361376447#0 361376447#3 35872864#0 35872865#0 259023090 5012279#0 62091761#0 253521587 222714920#0 253521586#0 253521586#5 682113696 5761911#0 -171858445#3 171858447#0 8046215" >
        <stop busStop="6157567115" duration="20" until="224.0"/> <!-- Aachen, Henricistraße -->
    </route>
    <route id="pt_bus_X_51:0" edges="952341787#0 5047995#0 1268386974#0 206293852#0 206293852#2 414512668#0 414512202 -414512201 -414512198#1 -2896894#2 -2896894#1 -436581184#1 -13871627#1 -37138338 -259921927#4 -443406811 -4553661#2 -24819641#3 24655690#0 29246662 429047402 429047401#1 261740053#0 32732940#0 -32732940#3" >
        <stop busStop="412441101" duration="20" until="52.0"/> <!-- Elisenbrunnen -->
    </route>
    <route id="pt_bus_36:0" edges="43204029 5012113#0 27653247#0 481799129 478472521#0 378655060 478472523 478472522 378655061#0 65157090#0 206451117 377848435#0 31542679#0 31542679#1 1153024461#0 8590786#0 262279474#0 29503061#0 32952316 237190956#0 237190957#0 15228628#0 1191168450 15228630 -10300180#2 -15229027#1 -122591586#1 -1193766737 -1162065320#0 -422258231#3 -411596077#3 -9097238 -411596081 -38585437 -1155620912 -422258233#0" >
        <stop busStop="302854412" duration="20" until="50.0"/> <!-- Aachen Bushof -->
    </route>
    <route id="pt_bus_80:0" edges="1291927074 -8816106 -8816098#2 -8046659 -1217154805 -123127193#4 907530291 -907164803#2 -76561469 -108673908#0 905221149#0 -545820634#3 1100566223 514329104 32665731 939477004 8039464 1204768088 316459829 367723404" >
        <stop busStop="11963492727" duration="20" until="95.0"/> <!-- Uniklinik -->
    </route>
    <route id="pt_bus_53:0" edges="-318312583#1 -13866707#2 -206293852#4 -206293852#1 -1268386974#1 -227628539 -952341785#1 -13866717 30711136#0 4444393 414498698#0 414498694#0 -1208289376 136592427 411476235 85249004 122718432#0 411476233 411476230 263430073#0 263430075#0 -122718433#2 -122718433#0 -231411781#4 -995402842 -244043140#1 -1208470615 5155780#0 692481298 244043137#0" >
        <stop busStop="-302865347" duration="20" until="52.0"/> <!-- Aachen Bushof -->
    </route>
    <route id="pt_bus_SB_63:1" edges="43204029 5012113#0 27653247#0 481799129 478472521#0 378655060 478472523 478472522 378655061#0 65157090#0 206451117 377848435#0 31542679#0 31542679#1 1153024461#0 8590786#0 262279474#0 29503061#0 32952316 237190956#0 237190957#0 15228628#0 1191168450 15228630 -10300180#2 -15229027#1 -122591586#1 -1193766737 -1162065320#0 -422258231#3 -411596077#3 -9097238 -411596081 -38585437 -1155620912 -422258233#0" >
        <stop busStop="302854413" duration="20" until="46.0"/> <!-- Aachen Bushof -->
    </route>
    <route id="pt_bus_N_6:1" edges="-379075436#1 -413741175 -610577376 -478516445 -379028417#2 -378655059 -378655055#2 -478516443 -488338802 -25607735#2 -378655061#3 -478472522 -478472523 -378655060 -478472521#1 -481799129 -1220113515 -318312583#1" >
        <stop busStop="-819017929" duration="20" until="53.0"/> <!-- Blücherplatz -->
        <stop busStop="-3247096695" duration="20" until="199.0"/> <!-- Hansemannplatz -->
    </route>
    <route id="pt_bus_80:1" edges="8082557 514329100 545811889 134514278 135154005 1100566221 905221150 108673908#0 108673908#1 166272322 1196308487 253014700 253014704 316459833 8082133 1196308497 438407241#1 222672545 222672544 8037073 -13872327 -1217137398 235546054#0 235546055#0 235546053 1290341411 1291927081 1290341410 1291927074" >
        <stop busStop="60095800" duration="20" until="85.0"/> <!-- Forckenbeckstraße -->
    </route>
    <route id="pt_bus_SB_63:2" edges="43204029 5012113#0 27653247#0 481799129 478472521#0 378655060 478472523 478472522 378655061#0 65157090#0 206451117 377848435#0 31542679#0 31542679#1 1153024461#0 8590786#0 262279474#0 29503061#0 32952316 237190956#0 237190957#0 15228628#0 1191168450 15228630 -10300180#2 -15229027#1 -122591586#1 -1193766737 -1162065320#0 -422258231#3 -411596077#3 -9097238 -411596081 -38585437 -1155620912 -422258233#0" >
        <stop busStop="302854413" duration="20" until="79.0"/> <!-- Aachen Bushof -->
    </route>
    <route id="pt_bus_3:0" edges="-1290341413" >
        <stop busStop="-11963492766" duration="20" until="44.0"/> <!-- Uniklinik -->
    </route>
    <route id="pt_bus_31:0" edges="411596082 422258233#1 38585437 411596081 9097238 411596077#1 422258231#0 122591587 1162065320#1 1162065325 15229027#0 10300180#0 15228622#0 -237190957#4 -237190956#1 -32952316 -319569817#3 -262279474#2 -26180560 368611216#0 368611216#1 206451118#0 31542682 370443423 370443420 5012278 426790052 478516443 378655055#0 378655056#0 379028417#0 30732136#0 610577376 65411736 379075436#0" >
        <stop busStop="3460302853" duration="20" until="49.0"/> <!-- Gillesbachtal -->
    </route>
    <route id="pt_bus_N_5:0" edges="-318312583#1 27653250 27653247#0 481799129 478472521#0 378655060 478472523 478472522 378655061#0 65157090#0 206451117 377848435#0 31542679#0 31542679#1 1153024461#0 8590786#0 262279474#0 29503061#0 32952316 237190956#0 237190957#0 15228628#0 1191168450 15228630 -10300180#2 -15229027#1 -122591586#1 -1193766737 -1162065320#0 -422258231#3 -411596077#3 -9097238 -411596081 -38585437 -1155620912 -422258233#0" >
        <stop busStop="-302865347" duration="20" until="49.0"/> <!-- Aachen Bushof -->
    </route>
    <route id="pt_bus_14:2" edges="43204026 5012113#0 27653247#0 481799129 478472521#0 378655060 478472523 478472522 378655061#0 65157090#0 206451117 377848435#0 31542679#0 31542679#1 1153024461#0 8590786#0 262279474#0 29503061#0 32952316 237190956#0 237190957#0 15228628#0 1191168450 15228630 -10300180#2 9097241#0 -1193766736 -422962208#1 -608730050 -608127843 -4444682#1 -4444682#0 -412150085#2 -153319185#4 -4444684" >
        <stop busStop="302854409" duration="20" until="51.0"/> <!-- Aachen Bushof -->
    </route>
    <route id="pt_bus_14:4" edges="43204026 5012113#0 27653247#0 481799129 478472521#0 378655060 478472523 478472522 378655061#0 65157090#0 206451117 377848435#0 31542679#0 31542679#1 1153024461#0 8590786#0 262279474#0 29503061#0 32952316 237190956#0 237190957#0 15228628#0 1191168450 15228630 -10300180#2 9097241#0 -1193766736 -422962208#1 -608730050 -608127843 -4444682#1 -4444682#0 -412150085#2 -153319185#4 -4444684" >
        <stop busStop="302854409" duration="20" until="91.0"/> <!-- Aachen Bushof -->
    </route>
    <route id="pt_bus_N_1:0" edges="952341787#0" >
        <stop busStop="412441101" duration="20" until="71.0"/> <!-- Elisenbrunnen -->
    </route>
    <route id="pt_bus_N_3:0" edges="952341787#0 5047995#0 1268386974#0 206293852#0 206293852#2 13866707#0 27653250 27653247#0 481799129 478472521#0 378655060 478472523 478472522 378655061#0 25607735#0 426790052 478516443 378655055#0 378655056#0 379028417#0 30732136#0 610577376 65411736 379075436#0" >
        <stop busStop="412441101" duration="20" until="114.0"/> <!-- Elisenbrunnen -->
    </route>
    <route id="pt_bus_65:0" edges="-370109217#1 -370439008 370582479#0 262279462 262279464 -370439010 -369084443#3 368611216#0 368611216#1 32706416#0 -378655061#3 -478472522 -478472523 -378655060 -478472521#1 -481799129 -1220113515 -318312583#1 -13866707#2 -206293852#4 -206293852#1 -1268386974#1 -227628539 -952341785#1" >
        <stop busStop="149268682" duration="20" until="239.0"/> <!-- Kaiserplatz -->
    </route>
    <route id="pt_bus_70:0" edges="8082557 514329100 545811889 134514278 135154005 1100566221 905221150 108673908#0 108673908#1 28211730 907164804 123127193#0 94558034#0 32349180 149630928 894942628 -1290341413 1291927080 1291927079 1291927082 1290341412" >
        <stop busStop="60095800" duration="20" until="68.0"/> <!-- Forckenbeckstraße -->
    </route>
    <route id="pt_bus_3:1" edges="1291927074" >
        <stop busStop="11963492727" duration="20" until="98.0"/> <!-- Uniklinik -->
    </route>
    <route id="pt_bus_X_35:1" edges="-370109217#1 -370439008 370582479#0 262279462 262279464 -370439010 -369084443#3 368611216#0 368611216#1 32706416#0 -378655061#3 -478472522 -478472523 -378655060 -478472521#1 -481799129 -1220113515 -318312583#1 -13866707#2 -206293852#4 -206293852#1 -1268386974#1 -227628539 -952341785#1" >
        <stop busStop="149268682" duration="20" until="303.0"/> <!-- Kaiserplatz -->
    </route>
    <route id="pt_bus_70:2" edges="8082557 514329100 545811889 134514278 135154005 1100566221 905221150 108673908#0 108673908#1 28211730 907164804 123127193#0 94558034#0 32349180 149630928 894942628 -1290341413 1291927080 1291927079 1291927082 1290341412" >
        <stop busStop="60095800" duration="20" until="101.0"/> <!-- Forckenbeckstraße -->
    </route>
    <route id="pt_bus_N_6:0" edges="952341787#0 5047995#0 1268386974#0 206293852#0 206293852#2 414512668#0 414512202 -414512201 -414512198#1 -2896894#2 -2896894#1 -436581184#1 -13871627#1 -37138338 -259921927#4 -443406811 -4553661#2 -24819641#3 24655690#0 29246662 429047402 429047401#1 261740053#0 32732940#0 -32732940#3" >
        <stop busStop="412441098" duration="20" until="86.0"/> <!-- Elisenbrunnen -->
    </route>
    <route id="pt_bus_X_51:2" edges="4965639 32732940#0 1209848130#0 261740058#0 261740058#1 1178357054#1 412155353 4965624#0 412155350 1192366819#0 -1192366819#0 -412155350 -1111034251 -723599062 -890512234 -956456014 975312999 -378655055#2 -478516443 -488338802 -25607735#2 -378655061#3 -478472522 -478472523 -378655060 -478472521#1 -481799129 -1220113515 -318312583#1 -13866707#2 -206293852#4 -206293852#1 -1268386974#1 -227628539 -952341785#1" >
        <stop busStop="3411818331" duration="20" until="186.0"/> <!-- STAWAG -->
    </route>
    <route id="pt_bus_X_51:1" edges="4965639 32732940#0 1209848130#0 261740058#0 261740058#1 1178357054#1 412155353 4965624#0 412155350 1192366819#0 -1192366819#0 -412155350 -1111034251 -723599062 -890512234 -956456014 975312999 -378655055#2 -478516443 -488338802 -25607735#2 -378655061#3 -478472522 -478472523 -378655060 -478472521#1 -481799129 -1220113515 -318312583#1 -13866707#2 -206293852#4 -206293852#1 -1268386974#1 -227628539 -952341785#1" >
        <stop busStop="3411818331" duration="20" until="164.0"/> <!-- STAWAG -->
    </route>
    <route id="pt_bus_328:0" edges="14184591 222714919#0 222714919#1 171858446#0 657946881#0 253521586#0 253521586#5 682113696 -657432129#2 -253521586#7 -253521586#4 253521588#0 206125629#0 206125630#0 259023091#0 30641881#0 32702145#0 259023092#0 259023092#4 259023092#5 259921926#0 25600876#0 25600876#2 25600876#3 25600876#6 993040722 993040723#0 25607735#0 426790052 478516443 378655055#0 378655056#0 379028417#0 30732136#0 610577376 65411736 379075436#0" >
        <stop busStop="6157567115" duration="20" until="126.0"/> <!-- Aachen, Henricistraße -->
    </route>
    <route id="pt_bus_75:0" edges="473854203 1199237029 1194742739#2 1194742740#0 75221790#0 75221790#1 31564228#0 75221791#0 27865722#0 474433014 1007099280 415624684#0 27653256#0 8086532 417558222 1194935198 430976266#0 27653255#0 1199234582 31963583 30641881#0 32702145#0 259023092#0 259023092#4 259023092#5 259921926#0 4553661#1 443406807 259921927#0 37138338 13871627#0 206293851 2896894#0 2896894#2 699087327 -27653249 5012116 27581785" >
        <stop busStop="1038181479" duration="20" until="37.0"/> <!-- Kastanienweg -->
    </route>
    <route id="pt_bus_4:3" edges="367221732 15555314 976145666 563280419#1 206451117 377848435#0 31542679#0 31542679#1 1153024461#0 8590786#0 262279474#0 29503061#0 32952316 237190956#0 237190957#0 15228628#0 1191168450 15228620#0 1191168449 15228621 -546342017 -411582351 -142419917#1 -173530593#3 -46835310#2 -411043309#2 -4017601 -411043307 -411043308 -422241948#1 -95785106 -263433049#2 29211151#0 411579683#0 307669389#0 411579684#1 411579684#4 466369849 420300229#0 4964411#0 78500971 1081191110 -4992149#2 -1193617512 -319622469 -241074258 -25610550#2 -241074268#5 -241074268#0 -945632558#2 148699157#1 -261736473#1 429299863#0 -330102539#5 -733739481#8 1012604827#0 1012604824#0 1012604823#0 72860688#0 474433018#0 -75097127#6" >
        <stop busStop="804154313" duration="20" until="73.0"/> <!-- Kaiserplatz -->
    </route>
    <route id="pt_bus_75:1" edges="-318312583#1 5012115 30711135 414512202 -414512201 -414512198#1 -2896894#2 -2896894#1 -206293853#4 -413104170#2 -8027254#2 -699087326#2 -699087325 83113035#0 1202822339#0 34147629#0 4444702#0 32702148 679273382 32702144#0 32702144#1 1174486351#0 -1199234577 -4923955#1 -27653255#2 -430976266#1 -1199234580 -417558222 -8086532 -28211733 -415624684#2 -1007099280 -8089633 -569732018 -75221791#2 -31564228#3 -75221790#3 -75221790#0 -1194742740#1 -1194742739#3 -1194742739#1 -939477002 -8038762 8082551 367723394 253015924#0 42676070 939477005 8038762 473854203" >
        <stop busStop="-339245833" duration="20" until="42.0"/> <!-- Aachen Bushof -->
    </route>
    <route id="pt_bus_N_2:0" edges="952341787#0 5047995#0 1268386974#0 206293852#0 206293852#2 414512668#0 414512202 -414512201 -414512198#1 -2896894#2 -2896894#1 -206293853#4 -413104170#2 -8027254#2 -699087326#2 -699087325 83113035#0 1202822339#0 34147629#0 4444702#0 32702148 679273382 32702144#0 32702144#1 1174486351#0 150464340 62091761#0 253521587 222714920#0 146079345#0 222714916#0 222714918#0 222714917#0 171858447#0 8082666" >
        <stop busStop="412441098" duration="20" until="43.0"/> <!-- Elisenbrunnen -->
    </route>
    <route id="pt_bus_51:2" edges="4965639 32732940#0 1209848130#0 261740058#0 261740058#1 1178357054#1 412155353 -723599062 -890512234 -956456014 975312999 -378655055#2 -478516443 -488338802 -25607735#2 65157090#0 206451117 377848435#0 31542679#0 31542679#1 1153024461#0 8590786#0 262279474#0 29503061#0 32952316 237190956#0 237190957#0 15228628#0 1191168450 15228630 -10300180#2 -15229027#1 -122591586#1 -1193766737 -1162065320#0 -422258231#3 -411596077#3 -9097238 -411596081 -38585437 -1155620912 -422258233#0" >
        <stop busStop="3411818329" duration="20" until="49.0"/> <!-- Rolandstraße -->
    </route>
    <route id="pt_bus_X_47:0" edges="-414512201 -414512198#1 -2896894#2 -2896894#1 -206293853#4 -413104170#2 -8027254#2 -699087326#2 -699087325 83113035#0 1202822339#0 34147629#0 4444702#0 32702148 679273382 32702144#0 32702144#1 1174486351#0 150464340 62091761#0 253521587 222714920#0 146079345#0 222714916#0 222714918#0 222714917#0 171858447#0 8046215" >
        <stop busStop="-282989999" duration="20" until="37.0"/> <!-- Aachen Bushof -->
    </route>
    <route id="pt_bus_21:3" edges="-379075436#1 -413741175 -610577376 -478516445 -379028417#2 -378655059 -378655055#2 -478516443 -488338802 -25607735#2 -378655061#3 -478472522 -478472523 478472523 478472522 378655061#0 65157090#0 206451117 377848435#0 31542679#0 31542679#1 1153024461#0 8590786#0 262279474#0 29503061#0 32952316 237190956#0 237190957#0 15228628#0 1191168450 15228630 -10300180#2 -15229027#1 -122591586#1 -1193766737 -1162065320#0 -422258231#3 -411596077#3 -9097238 -411596081 -38585437 -1155620912 -422258233#0" >
        <stop busStop="-819017929" duration="20" until="111.0"/> <!-- Blücherplatz -->
        <stop busStop="-3247096695" duration="20" until="271.0"/> <!-- Hansemannplatz -->
    </route>
    <route id="pt_bus_N_5:1" edges="5214481#0 414597286#0 414597286#1 5214482 259882553 259882552#0 32952316 237190956#0 237190957#0 15228628#0 1191168450 15228620#0 1191168449 15228621 -546342017 -411582351 -142419917#1 -173530593#3 -46835310#2 -411043309#2 -4017601 -411043307 -411043308 -422241948#1 4964409 35577844 4964410#0 -122718426#1 -729408527 -1208289210 1208289374 414498696#0 411094912#0 -30711136#1 13866717 952341787#0" >
        <stop busStop="-301623196" duration="20" until="145.0"/> <!-- Normaluhr -->
    </route>
    <route id="pt_bus_43:1" edges="359628843 128882184#1 128882184#4 412142123 128882191 412142122#0 412142122#2 633892178#0 -415624684#2 -1007099280 -8089633 -569732018 -75221791#2 -31564228#3 -75221790#3 -75221790#0 -1194742740#1 -1194742739#3 -1194742739#1 -939477002 -8038762 8082551 367723394 253015924#0 253015924#2 940680683 367723392 1100566218 514329102 1196370912 1196370911 25689908 243379623 194895439 166272323 -166272322 28211730 907164804 123127193#0 94558034#0 32349180 149630928 894942628 -1290341413" >
        <stop busStop="3417631293" duration="20" until="62.0"/> <!-- Europadorf -->
    </route>
    <route id="pt_bus_N_9:1" edges="952341787#0 -952341785#1" >
        <stop busStop="412441101" duration="20" until="119.0"/> <!-- Elisenbrunnen -->
    </route>
    <route id="pt_bus_N_2:2" edges="952341787#0 5047995#0 1268386974#0 206293852#0 206293852#2 414512668#0 414512202 -414512201 -414512198#1 -2896894#2 -2896894#1 -206293853#4 -413104170#2 -8027254#2 -699087326#2 -699087325 83113035#0 1202822339#0 34147629#0 4444702#0 32702148 679273382 32702144#0 32702144#1 1174486351#0 150464340 62091761#0 253521587 222714920#0 146079345#0 222714916#0 222714918#0 222714917#0 171858447#0 8082666" >
        <stop busStop="412441098" duration="20" until="71.0"/> <!-- Elisenbrunnen -->
    </route>
    <route id="pt_bus_2:1" edges="97833580#0 4444390#0 20446055#0 244043140#0 995402842 231411781#0 122718433#0 122718433#1 263430071#0 263433049#0 712485986#0 95785105 411043308 411043307 4017601 411043309#0 460211531 173530593#0 142419917#0 411582351 546342017 1191168447 5028391#0 15228622#0 -237190957#4 -237190956#1 -32952316 -319569817#3 -262279474#2 -26180560 369084443#0 370439010 370439009#0 370439013#0 262279473#0 370439008 370109217#0" >
        <stop busStop="3554590027" duration="20" until="68.0"/> <!-- Reumontstraße -->
    </route>
    <route id="pt_bus_70:1" edges="1291927076 1290341419 1291927081 1290341410 1291927074 -8816106 -8816098#2 -8046659 -1217154805 -123127193#4 907530291 -907164803#2 -76561469 -108673908#0 905221149#0 -545820634#3 1100566223 514329104 32665731 939477004 8039464 1204768088 316459829 367723404" >
        <stop busStop="11963492727" duration="20" until="49.0"/> <!-- Uniklinik -->
    </route>
    <route id="pt_bus_24:0" edges="-280911454#9 -280911454#7 -1084072386#1 4444687#3 369480722#0 4992149#0 -420298437#1 -78500971 -4964411#1 -420300229#2 -466369849 -411579684#5 -411579684#3 -411579684#0 -411579683#3 -29211151#2 263430078#0 -411476230 -411476233 -122718432#1 -4017602#2 -122718426#1 -729408527 -1208289210 1208289374 414498696#0 411094912#0 -30711136#1 13866717 952341787#0 5047995#0 1268386974#0 206293852#0 206293852#2 414512668#0 -30711135 30711138 43204026" >
        <stop busStop="-3420003207" duration="20" until="50.0"/> <!-- Franziskushospital -->
    </route>
    <route id="pt_bus_N_8:0" edges="952341787#0 5047995#0 1268386974#0 206293852#0 206293852#2 13866707#0 27653250 27653247#0 481799129 478472521#0 378655060 478472523 478472522 378655061#0 65157090#0 206451117 377848435#0 31542679#0 31542679#1 1153024461#0 369084443#0 370439010 370439009#0 370439013#0 262279473#0 370439008 370109217#0" >
        <stop busStop="412441101" duration="20" until="121.0"/> <!-- Elisenbrunnen -->
    </route>
    <route id="pt_bus_13:1" edges="679273382 32702144#0 4928890 29211621 4928891 32702148" >
        <stop busStop="291502285" duration="20" until="71.0"/> <!-- Ponttor -->
    </route>
    <route id="pt_bus_13:0" edges="679273383#0 -4928890 32702144#1 1174486351#0 1199234579" >
        <stop busStop="321336375" duration="20" until="74.0"/> <!-- Ponttor (Malteserstraße) -->
    </route>
    <route id="pt_bus_22:1" edges="-370109217#1 -370439008 370582479#0 262279462 262279464 -370439010 -369084443#3 368611216#0 368611216#1 32706416#0 4444385 657946880 28928488#0 30681331#0 976283243 4444387#0 361376447#0 361376447#3 35872864#0 35872865#0 259023090 62091754#0 -1199234577 -4923955#1 -27653255#2 -430976266#1 -1199234580 -417558222 -8086532 -28211733 -415624684#2 -1007099280 -8089633 -569732018 -75221791#2 -31564228#3 -75221790#3 -75221790#0 -1194742740#1 -1194742739#3 -1194742739#1 -939477002 -8038762 8082551 367723394 253015924#0 253015924#2 940680683 367723392 1100566218 514329102 1196370912 1196370911 25689908 243379623 194895439 166272323 -166272322 -76561469" >
        <stop busStop="149268682" duration="20" until="96.0"/> <!-- Kaiserplatz -->
    </route>
    <route id="pt_bus_24:1" edges="43204026 5012113#0 -318312583#1 -13866707#2 -206293852#4 -206293852#1 -1268386974#1 -227628539 -952341785#1 -13866717 30711136#0 4444393 414498698#0 414498694#0 -1208289376 136592427 411476235 85249004 122718432#0 411476233 411476230 263430073#0 29211151#0 411579683#0 307669389#0 411579684#1 411579684#4 466369849 420300229#0 4964411#0 78500971 1081191110 -4992149#2 -24898685 -420260805#5 -4444687#2 1084072386#2 280911454#8" >
        <stop busStop="302854409" duration="20" until="82.0"/> <!-- Aachen Bushof -->
    </route>
    <route id="pt_bus_80:2" edges="8082557 514329100 545811889 134514278 135154005 1100566221 905221150 108673908#0 108673908#1 166272322 1196308487 253014700 253014704 316459833 8082133 1196308497 438407241#1 222672545 222672544 8037073 -13872327 -1217137398 235546054#0 235546055#0 235546053 1290341411 1291927081 1290341410 1291927074" >
        <stop busStop="60095800" duration="20" until="68.0"/> <!-- Forckenbeckstraße -->
    </route>
    <route id="pt_bus_43:0" edges="-1290341413 1291927080 1291927079 1291927082 1290341418 235546057 1291927071#0 235546058 1217137398 13872327 907554759 224665984 248571491 8082573#0 8873098 907554797 316459834 301846924 46354255 1196370910 8082547 367723851 46354253 42676070 939477005 8038762 473854203 1199237029 1194742739#2 1194742740#0 75221790#0 75221790#1 31564228#0 75221791#0 27865722#0 474433014 1007099280 415624684#0 -633892178#2 -412142122#3 -412142122#1 -128882191 -412142123 -128882184#16 -128882184#3 -359628843" >
        <stop busStop="-11963492766" duration="20" until="75.0"/> <!-- Uniklinik -->
    </route>